ZINC000012638703 ZINC12638703 12638703 MCULE-8264672376 MolPort-000-054-920 PubChem-3192800


 37 41  0  0  0  0  0  0  0  0999 V2000
   12.2239   -3.2549   -0.3747 C   0  0  0  0  0
   14.4914   -4.1993   -0.0900 C   0  0  0  0  0
   15.0857   -2.9282   -0.0276 C   0  0  0  0  0
   16.4684   -2.7941    0.1595 C   0  0  0  0  0
   17.2567   -3.9463    0.2843 C   0  0  0  0  0
   16.6735   -5.2228    0.2279 C   0  0  0  0  0
   18.8543   -6.3597    0.4961 C   0  0  0  0  0
   15.2920   -5.3389    0.0431 C   0  0  0  0  0
   17.0863   -1.4584    0.2093 C   0  0  0  0  0
   16.6866    1.0817    0.0442 C   0  0  0  0  0
   15.7376    2.1163   -0.1451 C   0  0  0  0  0
   16.1781    3.4484   -0.1885 C   0  0  0  0  0
   17.5289    3.7625   -0.0381 C   0  0  0  0  0
   18.4600    2.7452    0.1577 C   0  0  0  0  0
   18.0409    1.4150    0.1961 C   0  0  0  0  0
   14.2852    1.8569   -0.2834 C   0  0  0  0  0
   10.9095    2.8024   -0.5093 C   0  0  0  0  0
   10.3687    2.9484    0.8766 C   0  0  0  0  0
    9.6951    1.7915    2.9774 C   0  0  0  0  0
    9.9680    0.3527    3.3961 C   0  0  0  0  0
    8.8681   -0.5752    2.8819 C   0  0  0  0  0
    8.4967   -0.3077    1.4498 C   0  0  0  0  0
    8.8954    0.8802    0.7956 C   0  0  0  0  0
    8.4728    1.1038   -0.5252 C   0  0  0  0  0
    7.6799    0.1644   -1.1877 C   0  0  0  0  0
    7.2932   -1.0085   -0.5364 C   0  0  0  0  0
    7.6976   -1.2419    0.7794 C   0  0  0  0  0
   13.1167   -4.3571   -0.2840 O   0  0  0  0  0
   17.4399   -6.3854    0.3554 O   0  0  0  0  0
   18.3320   -1.3504    0.3739 O   0  0  0  0  0
   10.6428    3.9969    1.5229 O   0  0  0  0  0
   16.2637   -0.2909    0.0633 N   0  0  0  0  0
   13.3593    2.8279   -0.4183 N   0  0  0  0  0
   12.2156    2.1682   -0.4577 N   0  0  0  0  0
    9.6585    1.8731    1.5183 N   0  0  0  0  0
   12.4078    0.8669   -0.3431 N   0  0  0  0  0
   13.7055    0.6378   -0.2352 N   0  0  0  0  0
  1 28  1  0  0  0
  2 28  1  0  0  0
  3  4  1  0  0  0
  4  9  1  0  0  0
  5  6  1  0  0  0
  6 29  1  0  0  0
  7 29  1  0  0  0
  8  2  1  0  0  0
  9 32  1  0  0  0
 10 11  1  0  0  0
 11 16  1  0  0  0
 12 13  1  0  0  0
 14 15  1  0  0  0
 16 37  1  0  0  0
 17 34  1  0  0  0
 17 18  1  0  0  0
 18 35  1  0  0  0
 19 35  1  0  0  0
 19 20  1  0  0  0
 20 21  1  0  0  0
 21 22  1  0  0  0
 23 24  1  0  0  0
 23 35  1  0  0  0
 25 26  1  0  0  0
 27 22  1  0  0  0
 32 10  1  0  0  0
 34 33  1  0  0  0
 34 36  1  0  0  0
  2  3  2  0  0  0
  4  5  2  0  0  0
  6  8  2  0  0  0
  9 30  2  0  0  0
 11 12  2  0  0  0
 13 14  2  0  0  0
 15 10  2  0  0  0
 16 33  2  0  0  0
 18 31  2  0  0  0
 22 23  2  0  0  0
 24 25  2  0  0  0
 26 27  2  0  0  0
 36 37  2  0  0  0
M  END
> <rmsd>
0.701019704

$$$$
ZINC000016694801 ZINC16694801 16694801 CSC026229556 MCULE-3295526182 MolPort-009-024-692 PubChem-47004351


 34 37  0  0  0  0  0  0  0  0999 V2000
   10.5391    2.5663    1.0335 C   0  0  0  0  0
   10.1913    0.2317    0.2698 C   0  0  0  0  0
    8.8251    0.4791    0.0474 C   0  0  0  0  0
    7.9870   -0.5185   -0.4460 C   0  0  0  0  0
    8.5030   -1.7803   -0.7259 C   0  0  0  0  0
    9.8552   -2.0428   -0.5086 C   0  0  0  0  0
   10.7234   -1.0566   -0.0076 C   0  0  0  0  0
   12.9479   -0.6209    1.1318 C   0  0  0  0  0
   13.9735    0.1789    0.3974 C   0  0  0  0  0
   16.4688    0.7535    0.2165 C   0  0  0  0  0
   16.3115    1.6454   -0.8553 C   0  0  0  0  0
   17.4226    2.2575   -1.4386 C   0  0  0  0  0
   18.7018    1.9812   -0.9568 C   0  0  0  0  0
   18.8673    1.0947    0.1085 C   0  0  0  0  0
   17.7564    0.4785    0.7093 C   0  0  0  0  0
   19.0472   -0.7379    2.5031 C   0  0  0  0  0
   20.2280    0.0170    2.4059 C   0  0  0  0  0
   21.3498   -0.3179    3.1697 C   0  0  0  0  0
   21.3000   -1.4087    4.0411 C   0  0  0  0  0
   20.1285   -2.1626    4.1483 C   0  0  0  0  0
   19.0077   -1.8262    3.3825 C   0  0  0  0  0
   14.5342   -2.9193   -0.2956 C   0  0  0  0  0
   15.2036   -3.3431    0.8390 C   0  0  0  0  0
   16.5973   -3.3025    0.6840 C   0  0  0  0  0
   17.0273   -2.8531   -0.5638 C   0  0  0  0  0
   11.0138    1.2564    0.7508 O   0  0  0  0  0
   13.6277    0.9137   -0.5662 O   0  0  0  0  0
   17.8869   -0.4343    1.7720 O   0  0  0  0  0
   12.4767   -2.8885   -1.9557 O   0  0  0  0  0
   12.1829   -4.0461    0.1801 O   0  0  0  0  0
   12.1191   -1.3887    0.2056 N   0  0  0  0  0
   15.3395    0.1047    0.8213 N   0  0  0  0  0
   12.7909   -2.8441   -0.4864 S   0  0  0  0  0
   15.6532   -2.5052   -1.4712 S   0  0  0  0  0
  1 26  1  0  0  0
  2 26  1  0  0  0
  3  4  1  0  0  0
  5  6  1  0  0  0
  7 31  1  0  0  0
  7  2  1  0  0  0
  8 31  1  0  0  0
  8  9  1  0  0  0
  9 32  1  0  0  0
 11 12  1  0  0  0
 13 14  1  0  0  0
 15 28  1  0  0  0
 15 10  1  0  0  0
 16 28  1  0  0  0
 17 18  1  0  0  0
 19 20  1  0  0  0
 21 16  1  0  0  0
 22 34  1  0  0  0
 23 24  1  0  0  0
 25 34  1  0  0  0
 32 10  1  0  0  0
 33 31  1  0  0  0
 33 22  1  0  0  0
  2  3  2  0  0  0
  4  5  2  0  0  0
  6  7  2  0  0  0
  9 27  2  0  0  0
 10 11  2  0  0  0
 12 13  2  0  0  0
 14 15  2  0  0  0
 16 17  2  0  0  0
 18 19  2  0  0  0
 20 21  2  0  0  0
 22 23  2  0  0  0
 24 25  2  0  0  0
 33 29  2  0  0  0
 33 30  2  0  0  0
M  END
> <rmsd>
0.806876242

$$$$
ZINC000012777271 12777271 CHEMBL4566155 CSC027425945 MCULE-8145457632 MolPort-005-741-614 PubChem-25503172


 31 34  0  0  0  0  0  0  0  0999 V2000
   10.6727    3.6716   -0.0533 C   0  0  0  0  0
   10.1030    1.2811    0.0848 C   0  0  0  0  0
    9.0645    0.2401    0.1166 C   0  0  0  0  0
    9.2419   -1.1235    0.2233 C   0  0  0  0  0
   10.5317   -1.8675    0.2818 C   0  0  0  0  0
   12.7792   -2.5469   -0.8209 C   0  0  0  0  0
   14.4020   -4.0550   -0.0791 C   0  0  0  0  0
   15.3101   -3.0477    0.0655 C   0  0  0  0  0
   16.4691   -3.6355    0.5235 C   0  0  0  0  0
   16.1653   -4.9907    0.6223 C   0  0  0  0  0
   17.0967   -6.0601    1.0754 C   0  0  0  0  0
   17.7670   -2.9731    0.8366 C   0  0  0  0  0
   14.9516   -1.7391   -0.2407 C   0  0  0  0  0
   15.6181    0.7211   -0.3338 C   0  0  0  0  0
   16.6930    1.7153   -0.1704 C   0  0  0  0  0
   16.4407    3.0777   -0.3920 C   0  0  0  0  0
   17.4617    4.0201   -0.2386 C   0  0  0  0  0
   18.7426    3.6071    0.1377 C   0  0  0  0  0
   19.0026    2.2522    0.3597 C   0  0  0  0  0
   17.9816    1.3099    0.2062 C   0  0  0  0  0
    7.9888   -1.6994    0.1982 C   0  0  0  0  0
    7.1083   -0.6326    0.0892 C   0  0  0  0  0
    9.7208    2.6180   -0.0303 O   0  0  0  0  0
   14.9158   -5.2143    0.2541 O   0  0  0  0  0
   14.4651    1.0957   -0.6813 O   0  0  0  0  0
    7.7826    0.4965    0.0429 O   0  0  0  0  0
   11.3228    0.9697    0.1676 O   0  0  0  0  0
   11.1264   -2.2026   -1.4014 S   0  0  0  0  0
   13.1404   -3.8293   -0.5171 N   0  0  0  0  0
   15.8900   -0.6663   -0.0941 N   0  0  0  0  0
   13.6776   -1.5208   -0.6845 N   0  0  0  0  0
  1 23  1  0  0  0
  2 23  1  0  0  0
  2  3  1  0  0  0
  3 26  1  0  0  0
  4 21  1  0  0  0
  5  4  1  0  0  0
  5 28  1  0  0  0
  6 28  1  0  0  0
  6 31  1  0  0  0
  7 29  1  0  0  0
  7 24  1  0  0  0
  8  9  1  0  0  0
  8 13  1  0  0  0
 10 24  1  0  0  0
 11 10  1  0  0  0
 12  9  1  0  0  0
 13 30  1  0  0  0
 14 15  1  0  0  0
 16 17  1  0  0  0
 18 19  1  0  0  0
 20 15  1  0  0  0
 22 26  1  0  0  0
 30 14  1  0  0  0
  2 27  2  0  0  0
  3  4  2  0  0  0
  6 29  2  0  0  0
  7  8  2  0  0  0
  9 10  2  0  0  0
 13 31  2  0  0  0
 14 25  2  0  0  0
 15 16  2  0  0  0
 17 18  2  0  0  0
 19 20  2  0  0  0
 21 22  2  0  0  0
M  END
> <rmsd>
0.616848707

$$$$
ZINC000033067859 ZINC33067859 33067859 ChemDiv-G756-0480 MCULE-7017919348 MolPort-007-879-200 PubChem-46356067


 33 36  0  0  0  0  0  0  0  0999 V2000
   15.6065   -8.0704    0.2262 C   0  0  0  0  0
   15.3437   -5.6094    0.0729 C   0  0  0  0  0
   14.4986   -4.4765   -0.0391 C   0  0  0  0  0
   12.3546   -5.7591   -0.1861 C   0  0  0  0  0
   15.0689   -3.1983   -0.0546 C   0  0  0  0  0
   16.4545   -3.0175    0.0322 C   0  0  0  0  0
   17.2830   -4.1388    0.1389 C   0  0  0  0  0
   16.7331   -5.4209    0.1599 C   0  0  0  0  0
   17.0294   -1.6609    0.0140 C   0  0  0  0  0
   16.5382    0.8624   -0.0826 C   0  0  0  0  0
   15.5497    1.8520    0.0509 C   0  0  0  0  0
   13.1637    2.3980    0.4384 C   0  0  0  0  0
   11.8947    1.6654    0.6901 C   0  0  0  0  0
   11.5658    1.2674    1.9815 C   0  0  0  0  0
   10.3870    0.5530    2.1843 C   0  0  0  0  0
    8.4298   -0.4676    1.3295 C   0  0  0  0  0
    7.5845   -0.7866    0.2661 C   0  0  0  0  0
    7.9217   -0.3773   -1.0214 C   0  0  0  0  0
    9.0957    0.3410   -1.2389 C   0  0  0  0  0
    9.4321    0.7786   -2.6250 C   0  0  0  0  0
    9.9279    0.6467   -0.1479 C   0  0  0  0  0
   15.9084    3.2086   -0.0278 C   0  0  0  0  0
   17.2385    3.5770   -0.2399 C   0  0  0  0  0
   18.2204    2.5942   -0.3761 C   0  0  0  0  0
   17.8718    1.2435   -0.2990 C   0  0  0  0  0
   14.8061   -6.9021    0.1028 O   0  0  0  0  0
   13.1014   -4.5517   -0.1376 O   0  0  0  0  0
   18.2814   -1.5110    0.0307 O   0  0  0  0  0
   14.2231    1.4650    0.2690 O   0  0  0  0  0
   10.0807    0.2063    3.3580 O   0  0  0  0  0
   16.1566   -0.5204    0.0009 N   0  0  0  0  0
    9.5780    0.2427    1.1230 N   0  0  0  0  0
   11.0791    1.3457   -0.3454 N   0  0  0  0  0
  1 26  1  0  0  0
  2 26  1  0  0  0
  3 27  1  0  0  0
  3  5  1  0  0  0
  4 27  1  0  0  0
  6  7  1  0  0  0
  6  9  1  0  0  0
  8  2  1  0  0  0
  9 31  1  0  0  0
 10 11  1  0  0  0
 11 29  1  0  0  0
 12 29  1  0  0  0
 12 13  1  0  0  0
 13 33  1  0  0  0
 14 15  1  0  0  0
 15 32  1  0  0  0
 17 18  1  0  0  0
 19 21  1  0  0  0
 20 19  1  0  0  0
 21 32  1  0  0  0
 22 23  1  0  0  0
 24 25  1  0  0  0
 31 10  1  0  0  0
 32 16  1  0  0  0
  2  3  2  0  0  0
  5  6  2  0  0  0
  7  8  2  0  0  0
  9 28  2  0  0  0
 11 22  2  0  0  0
 13 14  2  0  0  0
 15 30  2  0  0  0
 16 17  2  0  0  0
 18 19  2  0  0  0
 21 33  2  0  0  0
 23 24  2  0  0  0
 25 10  2  0  0  0
M  END
> <rmsd>
0.754432201

$$$$
ZINC000020617126 ZINC20617126 20617126 MCULE-4491070872 MolPort-002-785-715 PubChem-29097600


 30 32  0  0  0  0  0  0  0  0999 V2000
   11.4333    2.3659    0.8388 C   0  0  0  0  0
   10.5743    0.1158    0.2610 C   0  0  0  0  0
   10.8456   -1.2456    0.0401 C   0  0  0  0  0
   12.6439   -3.0738    0.1299 C   0  0  0  0  0
   14.0825   -3.4067    0.0836 C   0  0  0  0  0
   14.5718   -4.6768   -0.1713 C   0  0  0  0  0
   16.8158   -5.6928   -0.4605 C   0  0  0  0  0
   15.2133   -2.5907    0.1888 C   0  0  0  0  0
   15.3033   -1.1506    0.4857 C   0  0  0  0  0
   16.6390    0.9723    0.1092 C   0  0  0  0  0
   15.6758    1.7669   -0.5496 C   0  0  0  0  0
   13.6075    1.8950   -1.9082 C   0  0  0  0  0
   15.8555    3.1596   -0.6039 C   0  0  0  0  0
   16.9856    3.7522   -0.0370 C   0  0  0  0  0
   17.9526    2.9586    0.5813 C   0  0  0  0  0
   19.1635    3.5866    1.1707 C   0  0  0  0  0
   17.7817    1.5742    0.6472 C   0  0  0  0  0
    9.7908   -2.1178   -0.2709 C   0  0  0  0  0
    8.4799   -1.6450   -0.3578 C   0  0  0  0  0
    7.3731   -2.5801   -0.6868 C   0  0  0  0  0
    8.2104   -0.2936   -0.1381 C   0  0  0  0  0
    9.2523    0.5834    0.1700 C   0  0  0  0  0
   11.6268    0.9826    0.5766 O   0  0  0  0  0
   11.8035   -4.0131    0.1631 O   0  0  0  0  0
   14.3635   -0.5506    1.0699 O   0  0  0  0  0
   14.5749    1.1627   -1.1684 O   0  0  0  0  0
   12.2014   -1.7111    0.1179 N   0  0  0  0  0
   15.9117   -4.5858   -0.2131 N   0  0  0  0  0
   16.3119   -3.3446   -0.0045 N   0  0  0  0  0
   16.5176   -0.4530    0.1886 N   0  0  0  0  0
  1 23  1  0  0  0
  2 23  1  0  0  0
  3 27  1  0  0  0
  3 18  1  0  0  0
  4  5  1  0  0  0
  6 28  1  0  0  0
  7 28  1  0  0  0
  8  9  1  0  0  0
  8  5  1  0  0  0
  9 30  1  0  0  0
 11 26  1  0  0  0
 11 13  1  0  0  0
 12 26  1  0  0  0
 14 15  1  0  0  0
 16 15  1  0  0  0
 17 10  1  0  0  0
 19 21  1  0  0  0
 20 19  1  0  0  0
 22  2  1  0  0  0
 27  4  1  0  0  0
 28 29  1  0  0  0
 30 10  1  0  0  0
  2  3  2  0  0  0
  4 24  2  0  0  0
  5  6  2  0  0  0
  8 29  2  0  0  0
  9 25  2  0  0  0
 10 11  2  0  0  0
 13 14  2  0  0  0
 15 17  2  0  0  0
 18 19  2  0  0  0
 21 22  2  0  0  0
M  END
> <rmsd>
0.750755548

$$$$
ZINC000020617150 ZINC20617150 20617150 MCULE-7638933649 MolPort-002-785-544 PubChem-29097613


 28 30  0  0  0  0  0  0  0  0999 V2000
   11.4325    2.3663    0.8341 C   0  0  0  0  0
   10.5731    0.1154    0.2601 C   0  0  0  0  0
   10.8443   -1.2462    0.0405 C   0  0  0  0  0
   12.6435   -3.0738    0.1299 C   0  0  0  0  0
   14.0824   -3.4060    0.0828 C   0  0  0  0  0
   14.5719   -4.6761   -0.1721 C   0  0  0  0  0
   16.8160   -5.6916   -0.4618 C   0  0  0  0  0
   15.2129   -2.5898    0.1876 C   0  0  0  0  0
   15.3028   -1.1496    0.4845 C   0  0  0  0  0
   16.6401    0.9729    0.1101 C   0  0  0  0  0
   15.6778    1.7682   -0.5494 C   0  0  0  0  0
   13.6105    1.8978   -1.9095 C   0  0  0  0  0
   15.8587    3.1607   -0.6035 C   0  0  0  0  0
   16.9888    3.7526   -0.0360 C   0  0  0  0  0
   17.9547    2.9584    0.5832 C   0  0  0  0  0
   17.7829    1.5741    0.6488 C   0  0  0  0  0
    9.7890   -2.1191   -0.2676 C   0  0  0  0  0
    8.4778   -1.6465   -0.3535 C   0  0  0  0  0
    8.2086   -0.2949   -0.1346 C   0  0  0  0  0
    9.2509    0.5825    0.1707 C   0  0  0  0  0
   11.6259    0.9828    0.5728 O   0  0  0  0  0
   11.8038   -4.0135    0.1644 O   0  0  0  0  0
   14.3624   -0.5493    1.0674 O   0  0  0  0  0
   14.5770    1.1649   -1.1690 O   0  0  0  0  0
   12.2004   -1.7111    0.1170 N   0  0  0  0  0
   15.9117   -4.5847   -0.2144 N   0  0  0  0  0
   16.3117   -3.3434   -0.0059 N   0  0  0  0  0
   16.5177   -0.4523    0.1890 N   0  0  0  0  0
  1 21  1  0  0  0
  2 21  1  0  0  0
  3 25  1  0  0  0
  3 17  1  0  0  0
  4  5  1  0  0  0
  6 26  1  0  0  0
  7 26  1  0  0  0
  8  9  1  0  0  0
  8  5  1  0  0  0
  9 28  1  0  0  0
 11 24  1  0  0  0
 11 13  1  0  0  0
 12 24  1  0  0  0
 14 15  1  0  0  0
 16 10  1  0  0  0
 18 19  1  0  0  0
 20  2  1  0  0  0
 25  4  1  0  0  0
 26 27  1  0  0  0
 28 10  1  0  0  0
  2  3  2  0  0  0
  4 22  2  0  0  0
  5  6  2  0  0  0
  8 27  2  0  0  0
  9 23  2  0  0  0
 10 11  2  0  0  0
 13 14  2  0  0  0
 15 16  2  0  0  0
 17 18  2  0  0  0
 19 20  2  0  0  0
M  END
> <rmsd>
0.749819756

$$$$
ZINC000059488018 ZINC59488018 59488018


 28 32  0  0  0  0  0  0  0  0999 V2000
    8.0190   -1.5805   -0.0371 C   0  0  0  0  0
    8.1905   -0.1801   -0.0469 C   0  0  0  0  0
    9.4776    0.3850   -0.0487 C   0  0  0  0  0
   10.5696   -0.4810   -0.0404 C   0  0  0  0  0
   10.3980   -1.8589   -0.0308 C   0  0  0  0  0
    9.1318   -2.4390   -0.0288 C   0  0  0  0  0
   11.7178   -2.4762   -0.0238 C   0  0  0  0  0
   12.6743   -1.4864   -0.0294 C   0  0  0  0  0
   14.3720   -3.0943   -0.0146 C   0  0  0  0  0
   15.7252   -3.4401   -0.0096 C   0  0  0  0  0
   16.1012   -4.7870    0.0008 C   0  0  0  0  0
   15.1281   -5.7928    0.0063 C   0  0  0  0  0
   13.7694   -5.4615    0.0015 C   0  0  0  0  0
   13.3788   -4.1205   -0.0089 C   0  0  0  0  0
   12.0049   -0.1843   -0.0400 C   0  0  0  0  0
   14.4412    2.3525   -0.0540 C   0  0  0  0  0
   15.8943    2.5924   -0.0531 C   0  0  0  0  0
   16.3253    3.9238   -0.0621 C   0  0  0  0  0
   17.6881    4.2308   -0.0619 C   0  0  0  0  0
   18.6348    3.2053   -0.0527 C   0  0  0  0  0
   18.2188    1.8724   -0.0437 C   0  0  0  0  0
   16.8562    1.5568   -0.0439 C   0  0  0  0  0
   13.9974   -1.7816   -0.0248 N   0  0  0  0  0
   12.0540   -3.7890   -0.0137 N   0  0  0  0  0
   12.5447    0.9943   -0.0476 N   0  0  0  0  0
   13.9341    1.1642   -0.0463 N   0  0  0  0  0
   16.4809    0.2187   -0.0348 O   0  0  0  0  0
   18.2541    6.0499   -0.0740 Br  0  0  0  0  0
  2  3  1  0  0  0
  4  5  1  0  0  0
  4 15  1  0  0  0
  5  7  1  0  0  0
  6  1  1  0  0  0
  7 24  1  0  0  0
  8 23  1  0  0  0
  8 15  1  0  0  0
  9 10  1  0  0  0
 11 12  1  0  0  0
 13 14  1  0  0  0
 14  9  1  0  0  0
 16 17  1  0  0  0
 18 19  1  0  0  0
 19 28  1  0  0  0
 20 21  1  0  0  0
 22 27  1  0  0  0
 22 17  1  0  0  0
 25 26  1  0  0  0
  1  2  2  0  0  0
  3  4  2  0  0  0
  5  6  2  0  0  0
  7  8  2  0  0  0
  9 23  2  0  0  0
 10 11  2  0  0  0
 12 13  2  0  0  0
 14 24  2  0  0  0
 15 25  2  0  0  0
 16 26  2  0  0  0
 17 18  2  0  0  0
 19 20  2  0  0  0
 21 22  2  0  0  0
M  END
> <rmsd>
0.797762036

$$$$
ZINC000059488022 ZINC59488022 59488022


 30 34  0  0  0  0  0  0  0  0999 V2000
    8.0191   -1.5804   -0.0370 C   0  0  0  0  0
    8.1907   -0.1800   -0.0468 C   0  0  0  0  0
    9.4779    0.3850   -0.0486 C   0  0  0  0  0
   10.5699   -0.4810   -0.0404 C   0  0  0  0  0
   10.3981   -1.8590   -0.0307 C   0  0  0  0  0
    9.1320   -2.4389   -0.0288 C   0  0  0  0  0
   11.7179   -2.4764   -0.0239 C   0  0  0  0  0
   12.6745   -1.4866   -0.0293 C   0  0  0  0  0
   14.3720   -3.0948   -0.0146 C   0  0  0  0  0
   15.7251   -3.4407   -0.0097 C   0  0  0  0  0
   16.1011   -4.7876    0.0006 C   0  0  0  0  0
   15.1278   -5.7933    0.0062 C   0  0  0  0  0
   13.7691   -5.4619    0.0014 C   0  0  0  0  0
   13.3786   -4.1209   -0.0090 C   0  0  0  0  0
   12.0051   -0.1845   -0.0400 C   0  0  0  0  0
   14.4417    2.3521   -0.0540 C   0  0  0  0  0
   15.8949    2.5919   -0.0531 C   0  0  0  0  0
   16.3255    3.9229   -0.0619 C   0  0  0  0  0
   17.6914    4.2405   -0.0619 C   0  0  0  0  0
   18.6337    3.2052   -0.0527 C   0  0  0  0  0
   18.2176    1.8728   -0.0437 C   0  0  0  0  0
   16.8561    1.5571   -0.0439 C   0  0  0  0  0
   13.9975   -1.7820   -0.0249 N   0  0  0  0  0
   12.0539   -3.7893   -0.0137 N   0  0  0  0  0
   12.5451    0.9940   -0.0475 N   0  0  0  0  0
   13.9344    1.1638   -0.0463 N   0  0  0  0  0
   18.1219    5.6084   -0.0709 N   0  0  0  0  0
   16.4811    0.2189   -0.0349 O   0  0  0  0  0
   17.2866    6.5364   -0.0792 O   0  0  0  0  0
   19.4636    5.9142   -0.0707 O   0  0  0  0  0
  2  3  1  0  0  0
  4  5  1  0  0  0
  4 15  1  0  0  0
  5  7  1  0  0  0
  6  1  1  0  0  0
  7 24  1  0  0  0
  8 23  1  0  0  0
  8 15  1  0  0  0
  9 10  1  0  0  0
 11 12  1  0  0  0
 13 14  1  0  0  0
 14  9  1  0  0  0
 16 17  1  0  0  0
 18 19  1  0  0  0
 19 27  1  0  0  0
 20 21  1  0  0  0
 22 28  1  0  0  0
 22 17  1  0  0  0
 25 26  1  0  0  0
 27 30  1  0  0  0
  1  2  2  0  0  0
  3  4  2  0  0  0
  5  6  2  0  0  0
  7  8  2  0  0  0
  9 23  2  0  0  0
 10 11  2  0  0  0
 12 13  2  0  0  0
 14 24  2  0  0  0
 15 25  2  0  0  0
 16 26  2  0  0  0
 17 18  2  0  0  0
 19 20  2  0  0  0
 21 22  2  0  0  0
 27 29  2  0  0  0
M  CHG  2  27   1  30  -1
M  END
> <rmsd>
0.798221171

$$$$
ZINC000059488016 ZINC59488016 59488016


 28 32  0  0  0  0  0  0  0  0999 V2000
    8.0191   -1.5806   -0.0370 C   0  0  0  0  0
    8.1904   -0.1802   -0.0468 C   0  0  0  0  0
    9.4776    0.3850   -0.0486 C   0  0  0  0  0
   10.5697   -0.4809   -0.0404 C   0  0  0  0  0
   10.3981   -1.8590   -0.0307 C   0  0  0  0  0
    9.1320   -2.4390   -0.0288 C   0  0  0  0  0
   11.7179   -2.4761   -0.0239 C   0  0  0  0  0
   12.6744   -1.4863   -0.0294 C   0  0  0  0  0
   14.3720   -3.0944   -0.0146 C   0  0  0  0  0
   15.7252   -3.4400   -0.0097 C   0  0  0  0  0
   16.1013   -4.7869    0.0008 C   0  0  0  0  0
   15.1282   -5.7927    0.0063 C   0  0  0  0  0
   13.7694   -5.4614    0.0015 C   0  0  0  0  0
   13.3788   -4.1204   -0.0089 C   0  0  0  0  0
   12.0049   -0.1843   -0.0399 C   0  0  0  0  0
   14.4413    2.3524   -0.0541 C   0  0  0  0  0
   15.8946    2.5921   -0.0532 C   0  0  0  0  0
   16.3259    3.9236   -0.0620 C   0  0  0  0  0
   17.6888    4.2305   -0.0618 C   0  0  0  0  0
   18.6348    3.2043   -0.0527 C   0  0  0  0  0
   18.2186    1.8714   -0.0438 C   0  0  0  0  0
   16.8561    1.5563   -0.0439 C   0  0  0  0  0
   13.9974   -1.7815   -0.0249 N   0  0  0  0  0
   12.0541   -3.7891   -0.0138 N   0  0  0  0  0
   12.5447    0.9943   -0.0475 N   0  0  0  0  0
   13.9341    1.1642   -0.0463 N   0  0  0  0  0
   16.4805    0.2182   -0.0348 O   0  0  0  0  0
   20.3423    3.5878   -0.0524 Cl  0  0  0  0  0
  2  3  1  0  0  0
  4  5  1  0  0  0
  4 15  1  0  0  0
  5  7  1  0  0  0
  6  1  1  0  0  0
  7 24  1  0  0  0
  8 23  1  0  0  0
  8 15  1  0  0  0
  9 10  1  0  0  0
 11 12  1  0  0  0
 13 14  1  0  0  0
 14  9  1  0  0  0
 16 17  1  0  0  0
 18 19  1  0  0  0
 20 21  1  0  0  0
 20 28  1  0  0  0
 22 27  1  0  0  0
 22 17  1  0  0  0
 25 26  1  0  0  0
  1  2  2  0  0  0
  3  4  2  0  0  0
  5  6  2  0  0  0
  7  8  2  0  0  0
  9 23  2  0  0  0
 10 11  2  0  0  0
 12 13  2  0  0  0
 14 24  2  0  0  0
 15 25  2  0  0  0
 16 26  2  0  0  0
 17 18  2  0  0  0
 19 20  2  0  0  0
 21 22  2  0  0  0
M  END
> <rmsd>
0.797443271

$$$$
ZINC000013577005 13577005 PubChem-92451262


 35 38  0  0  0  0  0  0  0  0999 V2000
   20.1385    5.1572   -1.0196 C   0  0  0  0  0
   19.0680    3.1866    0.0242 C   0  0  0  0  0
   19.1323    2.1763    0.9887 C   0  0  0  0  0
   18.1043    1.2347    1.0948 C   0  0  0  0  0
   16.9991    1.2928    0.2397 C   0  0  0  0  0
   16.9334    2.3055   -0.7286 C   0  0  0  0  0
   17.9603    3.2471   -0.8364 C   0  0  0  0  0
   14.7566    0.2195   -0.3835 C   0  0  0  0  0
   13.8204   -0.9073   -0.1284 C   0  0  0  0  0
   12.8912   -0.5757    1.0292 C   0  0  0  0  0
   11.5721   -0.1027    0.5041 C   0  0  0  0  0
   11.1188   -1.9912    1.6409 C   0  0  0  0  0
   13.3931   -2.4285    2.7308 C   0  0  0  0  0
   13.7772   -3.8378    2.2972 C   0  0  0  0  0
   14.7268   -3.8090    1.1423 C   0  0  0  0  0
   16.0278   -3.3232    1.3280 C   0  0  0  0  0
   16.9225   -3.2778    0.2566 C   0  0  0  0  0
   16.5222   -3.7199   -1.0058 C   0  0  0  0  0
   15.2276   -4.2092   -1.1968 C   0  0  0  0  0
   14.3196   -4.2597   -0.1257 C   0  0  0  0  0
   12.5245   -5.1849   -1.5595 C   0  0  0  0  0
    9.0974   -0.7757    0.5726 C   0  0  0  0  0
    8.7031    0.0261   -0.5099 C   0  0  0  0  0
    7.3487    0.2295   -0.7893 C   0  0  0  0  0
    6.3731   -0.3652    0.0141 C   0  0  0  0  0
    6.7524   -1.1615    1.0970 C   0  0  0  0  0
    8.1073   -1.3635    1.3749 C   0  0  0  0  0
   20.1126    4.1114   -0.0579 O   0  0  0  0  0
   14.4592    1.0904   -1.2436 O   0  0  0  0  0
   11.4179    0.9670   -0.1437 O   0  0  0  0  0
   13.0162   -4.7389   -0.3032 O   0  0  0  0  0
   15.9690    0.3051    0.3762 N   0  0  0  0  0
   10.4965   -0.9706    0.8619 N   0  0  0  0  0
   12.5298   -1.7989    1.7378 N   0  0  0  0  0
   10.3865   -3.3980    2.0670 S   0  0  0  0  0
  1 28  1  0  0  0
  2 28  1  0  0  0
  3  4  1  0  0  0
  5  6  1  0  0  0
  5 32  1  0  0  0
  7  2  1  0  0  0
  9  8  1  0  0  0
 10  9  1  0  0  0
 10 11  1  0  0  0
 10 34  1  0  0  0
 11 33  1  0  0  0
 12 34  1  0  0  0
 13 34  1  0  0  0
 13 14  1  0  0  0
 14 15  1  0  0  0
 16 17  1  0  0  0
 18 19  1  0  0  0
 20 31  1  0  0  0
 20 15  1  0  0  0
 21 31  1  0  0  0
 23 24  1  0  0  0
 25 26  1  0  0  0
 27 22  1  0  0  0
 32  8  1  0  0  0
 33 12  1  0  0  0
 33 22  1  0  0  0
  2  3  2  0  0  0
  4  5  2  0  0  0
  6  7  2  0  0  0
  8 29  2  0  0  0
 11 30  2  0  0  0
 12 35  2  0  0  0
 15 16  2  0  0  0
 17 18  2  0  0  0
 19 20  2  0  0  0
 22 23  2  0  0  0
 24 25  2  0  0  0
 26 27  2  0  0  0
M  END
> <rmsd>
0.641804039

$$$$
ZINC000021535964 21535964 ChemDiv-G072-1407 MCULE-1397922627 MolPort-007-825-201 PubChem-46336475


 31 34  0  0  0  0  0  0  0  0999 V2000
   14.3350   -3.2317   -1.1394 N   0  0  0  0  0
   16.4509   -2.2185   -0.8578 N   0  0  0  0  0
   15.0101    0.2353    0.4894 N   0  0  0  0  0
   13.3473   -3.4118   -2.0559 C   0  0  0  0  0
   13.6408   -2.8289   -3.2862 C   0  0  0  0  0
   15.3841   -2.5348   -1.6297 C   0  0  0  0  0
   16.4802   -2.6282    0.4412 C   0  0  0  0  0
   17.6166   -2.2250    1.3156 C   0  0  0  0  0
   17.3637    0.4070    1.1840 C   0  0  0  0  0
   18.6324    0.9826    1.0559 C   0  0  0  0  0
   18.8623    1.9753    0.1027 C   0  0  0  0  0
   17.8223    2.3994   -0.7263 C   0  0  0  0  0
   16.5526    1.8317   -0.6010 C   0  0  0  0  0
   16.3082    0.8344    0.3546 C   0  0  0  0  0
   13.8950    0.3933   -0.3973 C   0  0  0  0  0
   12.6626   -0.4010   -0.1528 C   0  0  0  0  0
   10.2281   -0.0393    0.0271 C   0  0  0  0  0
    9.9676   -1.4167    0.1199 C   0  0  0  0  0
    8.6552   -1.8764    0.2487 C   0  0  0  0  0
    7.5954   -0.9669    0.2824 C   0  0  0  0  0
    7.8481    0.4040    0.1911 C   0  0  0  0  0
    9.1613    0.8653    0.0658 C   0  0  0  0  0
   15.4122   -3.3674    0.9744 C   0  0  0  0  0
   14.3232   -3.6662    0.1502 C   0  0  0  0  0
   12.7460   -2.8480   -4.4715 C   0  0  0  0  0
   15.1579   -2.0823   -3.2293 S   0  0  0  0  0
   17.1175   -0.8669    2.4244 S   0  0  0  0  0
   11.5286    0.4532   -0.1001 O   0  0  0  0  0
   13.9648    1.1370   -1.4130 O   0  0  0  0  0
   13.3439   -4.3129    0.6084 O   0  0  0  0  0
    5.9533   -1.5486    0.4276 Cl  0  0  0  0  0
  1  4  1  0  0  0
  3 15  1  0  0  0
  5 26  1  0  0  0
  6 26  1  0  0  0
  6  1  1  0  0  0
  7  2  1  0  0  0
  8  7  1  0  0  0
  8 27  1  0  0  0
  9 27  1  0  0  0
 10 11  1  0  0  0
 12 13  1  0  0  0
 14  3  1  0  0  0
 14  9  1  0  0  0
 16 15  1  0  0  0
 16 28  1  0  0  0
 17 28  1  0  0  0
 18 19  1  0  0  0
 20 21  1  0  0  0
 20 31  1  0  0  0
 22 17  1  0  0  0
 23 24  1  0  0  0
 24  1  1  0  0  0
 25  5  1  0  0  0
  4  5  2  0  0  0
  6  2  2  0  0  0
  7 23  2  0  0  0
  9 10  2  0  0  0
 11 12  2  0  0  0
 13 14  2  0  0  0
 15 29  2  0  0  0
 17 18  2  0  0  0
 19 20  2  0  0  0
 21 22  2  0  0  0
 24 30  2  0  0  0
M  END
> <rmsd>
0.821414769

$$$$
ZINC000059488021 ZINC59488021 59488021


 29 33  0  0  0  0  0  0  0  0999 V2000
   17.2538    6.6714   -0.0803 C   0  0  0  0  0
   17.6931    4.2373   -0.0618 C   0  0  0  0  0
   18.6340    3.2052   -0.0525 C   0  0  0  0  0
   18.2176    1.8725   -0.0436 C   0  0  0  0  0
   16.8558    1.5566   -0.0438 C   0  0  0  0  0
   15.8944    2.5914   -0.0531 C   0  0  0  0  0
   16.3255    3.9223   -0.0620 C   0  0  0  0  0
   14.4412    2.3517   -0.0540 C   0  0  0  0  0
   12.0046   -0.1849   -0.0400 C   0  0  0  0  0
   10.5694   -0.4813   -0.0404 C   0  0  0  0  0
    9.4774    0.3846   -0.0486 C   0  0  0  0  0
    8.1902   -0.1803   -0.0469 C   0  0  0  0  0
    8.0187   -1.5806   -0.0370 C   0  0  0  0  0
    9.1314   -2.4392   -0.0288 C   0  0  0  0  0
   10.3976   -1.8593   -0.0307 C   0  0  0  0  0
   11.7174   -2.4767   -0.0239 C   0  0  0  0  0
   12.6740   -1.4871   -0.0293 C   0  0  0  0  0
   14.3714   -3.0952   -0.0147 C   0  0  0  0  0
   15.7245   -3.4411   -0.0098 C   0  0  0  0  0
   16.1005   -4.7881    0.0007 C   0  0  0  0  0
   15.1272   -5.7937    0.0062 C   0  0  0  0  0
   13.7685   -5.4622    0.0015 C   0  0  0  0  0
   13.3781   -4.1212   -0.0090 C   0  0  0  0  0
   18.1409    5.5612   -0.0706 O   0  0  0  0  0
   16.4809    0.2184   -0.0348 O   0  0  0  0  0
   13.9341    1.1634   -0.0463 N   0  0  0  0  0
   12.5446    0.9937   -0.0476 N   0  0  0  0  0
   13.9969   -1.7825   -0.0248 N   0  0  0  0  0
   12.0534   -3.7897   -0.0138 N   0  0  0  0  0
  1 24  1  0  0  0
  2 24  1  0  0  0
  3  4  1  0  0  0
  5  6  1  0  0  0
  5 25  1  0  0  0
  6  8  1  0  0  0
  7  2  1  0  0  0
  9 10  1  0  0  0
  9 17  1  0  0  0
 11 12  1  0  0  0
 13 14  1  0  0  0
 15 16  1  0  0  0
 15 10  1  0  0  0
 16 29  1  0  0  0
 17 28  1  0  0  0
 18 19  1  0  0  0
 20 21  1  0  0  0
 22 23  1  0  0  0
 23 18  1  0  0  0
 26 27  1  0  0  0
  2  3  2  0  0  0
  4  5  2  0  0  0
  6  7  2  0  0  0
  8 26  2  0  0  0
  9 27  2  0  0  0
 10 11  2  0  0  0
 12 13  2  0  0  0
 14 15  2  0  0  0
 16 17  2  0  0  0
 18 28  2  0  0  0
 19 20  2  0  0  0
 21 22  2  0  0  0
 23 29  2  0  0  0
M  END
> <rmsd>
0.7981475

$$$$
ZINC000229934991 229934991 PubChem-100874503


 42 48  0  0  0  0  0  0  0  0999 V2000
   14.3310    0.7694   -1.0029 O   0  0  0  0  0
   16.1846   -3.7682   -3.6672 O   0  0  0  0  0
   14.2639   -2.5690   -3.6764 O   0  0  0  0  0
   11.1276   -0.9519    3.2019 O   0  0  0  0  0
   12.2588   -4.2732   -0.0217 O   0  0  0  0  0
   14.4210    0.5200    0.2302 C   0  0  0  0  0
   16.8795    1.2161    0.3929 C   0  0  0  0  0
   17.0768    1.3173   -0.9931 C   0  0  0  0  0
   18.3162    1.7138   -1.5032 C   0  0  0  0  0
   19.3675    2.0086   -0.6313 C   0  0  0  0  0
   19.1797    1.9047    0.7496 C   0  0  0  0  0
   17.9396    1.5077    1.2584 C   0  0  0  0  0
   13.2678   -0.1104    0.9616 C   0  0  0  0  0
   13.4381   -1.5948    1.3565 C   0  0  0  0  0
   14.4787   -2.3365    0.5473 C   0  0  0  0  0
   15.5504   -2.9354    1.2159 C   0  0  0  0  0
   16.5392   -3.6114    0.4971 C   0  0  0  0  0
   16.4619   -3.6892   -0.8960 C   0  0  0  0  0
   15.3939   -3.0912   -1.5814 C   0  0  0  0  0
   14.4063   -2.4159   -0.8528 C   0  0  0  0  0
   12.0083   -2.1685    1.2462 C   0  0  0  0  0
   11.3147   -2.0360    2.5863 C   0  0  0  0  0
   10.8865   -3.3396    3.0690 C   0  0  0  0  0
   10.2146   -3.6668    4.2462 C   0  0  0  0  0
    9.8977   -5.0169    4.4714 C   0  0  0  0  0
   10.2501   -6.0004    3.5253 C   0  0  0  0  0
   10.9236   -5.6437    2.3452 C   0  0  0  0  0
   11.2321   -4.2979    2.1480 C   0  0  0  0  0
   11.8974   -3.6632    1.0197 C   0  0  0  0  0
   11.3554   -1.3312    0.1364 C   0  0  0  0  0
    9.8475   -1.2247    0.1569 C   0  0  0  0  0
    9.0571   -2.3821    0.1483 C   0  0  0  0  0
    7.6635   -2.2849    0.1180 C   0  0  0  0  0
    7.0512   -1.0296    0.0783 C   0  0  0  0  0
    7.8324    0.1291    0.0615 C   0  0  0  0  0
    9.2269    0.0343    0.0934 C   0  0  0  0  0
   10.0388    1.2530    0.0507 C   0  0  0  0  0
   15.6279    0.7964    0.9518 N   0  0  0  0  0
   15.3106   -3.1646   -3.0107 N   0  0  0  0  0
   11.3322    1.1933    0.1224 N   0  0  0  0  0
   12.0192   -0.0312    0.2184 N   0  0  0  0  0
   20.9198    2.5059   -1.2686 Cl  0  0  0  0  0
  6 38  1  0  0  0
  8  9  1  0  0  0
 10 42  1  0  0  0
 10 11  1  0  0  0
 12  7  1  0  0  0
 13  6  1  0  0  0
 13 14  1  0  0  0
 13 41  1  0  0  0
 14 15  1  0  0  0
 14 21  1  0  0  0
 16 17  1  0  0  0
 18 19  1  0  0  0
 19 39  1  0  0  0
 20 15  1  0  0  0
 21 22  1  0  0  0
 21 29  1  0  0  0
 22 23  1  0  0  0
 24 25  1  0  0  0
 26 27  1  0  0  0
 28 29  1  0  0  0
 28 23  1  0  0  0
 30 21  1  0  0  0
 30 31  1  0  0  0
 30 41  1  0  0  0
 32 33  1  0  0  0
 34 35  1  0  0  0
 36 37  1  0  0  0
 36 31  1  0  0  0
 38  7  1  0  0  0
 39  3  1  0  0  0
 41 40  1  0  0  0
  6  1  2  0  0  0
  7  8  2  0  0  0
  9 10  2  0  0  0
 11 12  2  0  0  0
 15 16  2  0  0  0
 17 18  2  0  0  0
 19 20  2  0  0  0
 22  4  2  0  0  0
 23 24  2  0  0  0
 25 26  2  0  0  0
 27 28  2  0  0  0
 29  5  2  0  0  0
 31 32  2  0  0  0
 33 34  2  0  0  0
 35 36  2  0  0  0
 37 40  2  0  0  0
 39  2  2  0  0  0
M  CHG  2  39   1   3  -1
M  END
> <rmsd>
0.687476754

$$$$
ZINC000229934991 229934991 PubChem-100874503


 42 48  0  0  0  0  0  0  0  0999 V2000
   14.3168    0.8003   -0.9957 O   0  0  0  0  0
   16.2164   -3.6972   -3.6715 O   0  0  0  0  0
   14.2832   -2.5184   -3.6778 O   0  0  0  0  0
   12.2771   -4.2622   -0.0254 O   0  0  0  0  0
   11.1176   -0.9545    3.2016 O   0  0  0  0  0
   14.4077    0.5436    0.2356 C   0  0  0  0  0
   16.8744    1.2033    0.3946 C   0  0  0  0  0
   17.9229    1.5437    1.2563 C   0  0  0  0  0
   19.1739    1.8978    0.7425 C   0  0  0  0  0
   19.3844    1.9086   -0.6390 C   0  0  0  0  0
   18.3451    1.5626   -1.5066 C   0  0  0  0  0
   17.0946    1.2093   -0.9918 C   0  0  0  0  0
   13.2568   -0.0948    0.9638 C   0  0  0  0  0
   13.4372   -1.5781    1.3577 C   0  0  0  0  0
   14.4830   -2.3121    0.5477 C   0  0  0  0  0
   15.5568   -2.9077    1.2159 C   0  0  0  0  0
   16.5512   -3.5743    0.4960 C   0  0  0  0  0
   16.4781   -3.6450   -0.8977 C   0  0  0  0  0
   15.4082   -3.0500   -1.5828 C   0  0  0  0  0
   14.4144   -2.3852   -0.8531 C   0  0  0  0  0
   12.0115   -2.1616    1.2461 C   0  0  0  0  0
   11.9123   -3.6569    1.0177 C   0  0  0  0  0
   11.2543   -4.2985    2.1462 C   0  0  0  0  0
   10.9600   -5.6474    2.3437 C   0  0  0  0  0
   10.2916   -6.0113    3.5245 C   0  0  0  0  0
    9.9311   -5.0319    4.4717 C   0  0  0  0  0
   10.2348   -3.6789    4.2470 C   0  0  0  0  0
   10.9013   -3.3444    3.0685 C   0  0  0  0  0
   11.3168   -2.0365    2.5863 C   0  0  0  0  0
   11.3526   -1.3285    0.1367 C   0  0  0  0  0
    9.8440   -1.2284    0.1597 C   0  0  0  0  0
    9.0583   -2.3893    0.1602 C   0  0  0  0  0
    7.6642   -2.2983    0.1301 C   0  0  0  0  0
    7.0467   -1.0457    0.0805 C   0  0  0  0  0
    7.8231    0.1162    0.0543 C   0  0  0  0  0
    9.2180    0.0275    0.0866 C   0  0  0  0  0
   10.0245    1.2497    0.0367 C   0  0  0  0  0
   15.6129    0.8229    0.9587 N   0  0  0  0  0
   15.3313   -3.1126   -3.0128 N   0  0  0  0  0
   11.3182    1.1960    0.1105 N   0  0  0  0  0
   12.0100   -0.0250    0.2170 N   0  0  0  0  0
   20.9517    2.3496   -1.2815 Cl  0  0  0  0  0
  6 38  1  0  0  0
  8  9  1  0  0  0
 10 42  1  0  0  0
 10 11  1  0  0  0
 12  7  1  0  0  0
 13  6  1  0  0  0
 13 14  1  0  0  0
 13 41  1  0  0  0
 14 15  1  0  0  0
 14 21  1  0  0  0
 16 17  1  0  0  0
 18 19  1  0  0  0
 19 39  1  0  0  0
 20 15  1  0  0  0
 21 22  1  0  0  0
 21 29  1  0  0  0
 22 23  1  0  0  0
 24 25  1  0  0  0
 26 27  1  0  0  0
 28 29  1  0  0  0
 28 23  1  0  0  0
 30 21  1  0  0  0
 30 31  1  0  0  0
 30 41  1  0  0  0
 32 33  1  0  0  0
 34 35  1  0  0  0
 36 37  1  0  0  0
 36 31  1  0  0  0
 38  7  1  0  0  0
 39  3  1  0  0  0
 41 40  1  0  0  0
  6  1  2  0  0  0
  7  8  2  0  0  0
  9 10  2  0  0  0
 11 12  2  0  0  0
 15 16  2  0  0  0
 17 18  2  0  0  0
 19 20  2  0  0  0
 22  4  2  0  0  0
 23 24  2  0  0  0
 25 26  2  0  0  0
 27 28  2  0  0  0
 29  5  2  0  0  0
 31 32  2  0  0  0
 33 34  2  0  0  0
 35 36  2  0  0  0
 37 40  2  0  0  0
 39  2  2  0  0  0
M  CHG  2  39   1   3  -1
M  END
> <rmsd>
0.710707068

$$$$
ZINC000041077159 ZINC41077159 41077159 MCULE-2893748074 MolPort-019-841-103 PubChem-52096480


 32 35  0  0  0  0  0  0  0  0999 V2000
   12.3793   -5.8557   -0.1466 C   0  0  0  0  0
   14.4159   -4.4595   -0.0061 C   0  0  0  0  0
   14.9761   -3.1784   -0.0195 C   0  0  0  0  0
   16.3601   -2.9995    0.1229 C   0  0  0  0  0
   17.1842   -4.1235    0.2787 C   0  0  0  0  0
   16.6326   -5.4072    0.2921 C   0  0  0  0  0
   15.2531   -5.5758    0.1509 C   0  0  0  0  0
   16.9389   -1.6444    0.1095 C   0  0  0  0  0
   16.4596    0.8758   -0.0751 C   0  0  0  0  0
   15.4695    1.8528   -0.2721 C   0  0  0  0  0
   13.0756    2.3680   -0.6548 C   0  0  0  0  0
   11.8023    1.6155   -0.8037 C   0  0  0  0  0
   11.3769    1.2109   -2.0854 C   0  0  0  0  0
   10.1975    0.4647   -2.1978 C   0  0  0  0  0
    8.1748   -0.5424    0.4618 C   0  0  0  0  0
    9.9474    0.5504    0.1507 C   0  0  0  0  0
    7.6068   -1.1505   -1.9199 C   0  0  0  0  0
    7.5700   -2.6553   -1.7313 C   0  0  0  0  0
    6.1966   -0.5894   -1.9184 C   0  0  0  0  0
   15.8274    3.2112   -0.2930 C   0  0  0  0  0
   17.1588    3.5942   -0.1183 C   0  0  0  0  0
   18.1425    2.6245    0.0800 C   0  0  0  0  0
   17.7945    1.2720    0.1014 C   0  0  0  0  0
   13.0323   -4.5938   -0.1491 O   0  0  0  0  0
   18.1841   -1.4936    0.2386 O   0  0  0  0  0
   14.1408    1.4510   -0.4448 O   0  0  0  0  0
    9.7840    0.0880   -3.3260 O   0  0  0  0  0
   16.0775   -0.5083   -0.0575 N   0  0  0  0  0
    9.5247    0.1633   -1.0547 N   0  0  0  0  0
    8.4111   -0.5226   -0.8740 N   0  0  0  0  0
    9.1388    0.1346    1.1448 N   0  0  0  0  0
   11.0830    1.2736    0.3068 N   0  0  0  0  0
  1 24  1  0  0  0
  2 24  1  0  0  0
  3  4  1  0  0  0
  4  8  1  0  0  0
  5  6  1  0  0  0
  7  2  1  0  0  0
  8 28  1  0  0  0
  9 10  1  0  0  0
 10 26  1  0  0  0
 11 26  1  0  0  0
 11 12  1  0  0  0
 12 32  1  0  0  0
 13 14  1  0  0  0
 14 29  1  0  0  0
 16 31  1  0  0  0
 16 29  1  0  0  0
 17 30  1  0  0  0
 17 18  1  0  0  0
 17 19  1  0  0  0
 20 21  1  0  0  0
 22 23  1  0  0  0
 28  9  1  0  0  0
 29 30  1  0  0  0
 30 15  1  0  0  0
  2  3  2  0  0  0
  4  5  2  0  0  0
  6  7  2  0  0  0
  8 25  2  0  0  0
 10 20  2  0  0  0
 12 13  2  0  0  0
 14 27  2  0  0  0
 15 31  2  0  0  0
 16 32  2  0  0  0
 21 22  2  0  0  0
 23  9  2  0  0  0
M  END
> <rmsd>
0.713837266

$$$$
ZINC000000831474 ZINC00831474 831474 CHEMBL1582945 ChemDiv-5208-0140 MCULE-4147565467 MolPort-001-899-121 PubChem-1104762


 27 29  0  0  0  0  0  0  0  0999 V2000
   11.4626    2.3565    0.9125 C   0  0  0  0  0
   10.6079    0.1213    0.2736 C   0  0  0  0  0
   10.8794   -1.2359    0.0288 C   0  0  0  0  0
   12.6681   -3.0715    0.1339 C   0  0  0  0  0
   14.1035   -3.4179    0.0841 C   0  0  0  0  0
   15.2227   -2.5997    0.1922 C   0  0  0  0  0
   15.8634   -4.5985   -0.2150 C   0  0  0  0  0
   15.3102   -1.1605    0.4974 C   0  0  0  0  0
   16.6216    0.9725    0.1007 C   0  0  0  0  0
   15.6435    1.7584   -0.5463 C   0  0  0  0  0
   13.5629    1.8666   -1.8876 C   0  0  0  0  0
   15.8099    3.1527   -0.6019 C   0  0  0  0  0
   16.9412    3.7554   -0.0481 C   0  0  0  0  0
   17.9225    2.9705    0.5586 C   0  0  0  0  0
   17.7652    1.5844    0.6255 C   0  0  0  0  0
    9.8275   -2.0990   -0.3162 C   0  0  0  0  0
    8.5191   -1.6210   -0.4139 C   0  0  0  0  0
    8.2495   -0.2737   -0.1703 C   0  0  0  0  0
    9.2885    0.5940    0.1719 C   0  0  0  0  0
   11.6570    0.9785    0.6244 O   0  0  0  0  0
   11.8227   -4.0056    0.1737 O   0  0  0  0  0
   14.3815   -0.5706    1.1092 O   0  0  0  0  0
   14.5413    1.1441   -1.1525 O   0  0  0  0  0
   12.2329   -1.7064    0.1159 N   0  0  0  0  0
   16.3226   -3.3487   -0.0044 N   0  0  0  0  0
   14.5181   -4.6734   -0.1671 N   0  0  0  0  0
   16.5137   -0.4537    0.1791 N   0  0  0  0  0
  1 20  1  0  0  0
  2 20  1  0  0  0
  3 24  1  0  0  0
  3 16  1  0  0  0
  4  5  1  0  0  0
  6 25  1  0  0  0
  6  8  1  0  0  0
  7 26  1  0  0  0
  8 27  1  0  0  0
 10 23  1  0  0  0
 10 12  1  0  0  0
 11 23  1  0  0  0
 13 14  1  0  0  0
 15  9  1  0  0  0
 17 18  1  0  0  0
 19  2  1  0  0  0
 24  4  1  0  0  0
 26  5  1  0  0  0
 27  9  1  0  0  0
  2  3  2  0  0  0
  4 21  2  0  0  0
  5  6  2  0  0  0
  7 25  2  0  0  0
  8 22  2  0  0  0
  9 10  2  0  0  0
 12 13  2  0  0  0
 14 15  2  0  0  0
 16 17  2  0  0  0
 18 19  2  0  0  0
M  END
> <rmsd>
0.762485981

$$$$
ZINC000033067751 ZINC33067751 33067751 ChemDiv-G756-0045 MCULE-4147402955 MolPort-007-878-943 PubChem-46355860


 32 35  0  0  0  0  0  0  0  0999 V2000
   13.4943   -7.2866   -0.0394 C   0  0  0  0  0
   15.3239   -5.5916    0.1685 C   0  0  0  0  0
   14.5019   -4.4586   -0.0532 C   0  0  0  0  0
   12.2621   -3.5009   -0.5192 C   0  0  0  0  0
   15.0825   -3.1800   -0.0406 C   0  0  0  0  0
   16.4520   -3.0061    0.1869 C   0  0  0  0  0
   17.2556   -4.1301    0.4015 C   0  0  0  0  0
   16.6939   -5.4075    0.3920 C   0  0  0  0  0
   17.0334   -1.6522    0.1959 C   0  0  0  0  0
   16.5520    0.8652   -0.0502 C   0  0  0  0  0
   15.5565    1.8285   -0.2792 C   0  0  0  0  0
   13.1591    2.3050   -0.7027 C   0  0  0  0  0
   11.8980    1.5299   -0.8479 C   0  0  0  0  0
   11.6051    0.8910   -2.0497 C   0  0  0  0  0
   10.4322    0.1436   -2.1451 C   0  0  0  0  0
    8.4444   -0.6948   -1.1622 C   0  0  0  0  0
    7.5788   -0.8121   -0.0734 C   0  0  0  0  0
    7.8950   -0.1697    1.1221 C   0  0  0  0  0
    9.0672    0.5785    1.2187 C   0  0  0  0  0
    9.9121    0.6778    0.1109 C   0  0  0  0  0
   15.9006    3.1900   -0.3128 C   0  0  0  0  0
   17.2255    3.5884   -0.1192 C   0  0  0  0  0
   18.2152    2.6308    0.1092 C   0  0  0  0  0
   17.8802    1.2749    0.1435 C   0  0  0  0  0
   14.8473   -6.9110    0.1755 O   0  0  0  0  0
   13.1278   -4.6030   -0.2800 O   0  0  0  0  0
   18.2678   -1.4975    0.4010 O   0  0  0  0  0
   14.2362    1.4070   -0.4703 O   0  0  0  0  0
   10.1630   -0.4328   -3.2344 O   0  0  0  0  0
   16.1798   -0.5207   -0.0255 N   0  0  0  0  0
    9.5922    0.0410   -1.0680 N   0  0  0  0  0
   11.0552    1.4052    0.2077 N   0  0  0  0  0
  1 25  1  0  0  0
  2 25  1  0  0  0
  3 26  1  0  0  0
  3  5  1  0  0  0
  4 26  1  0  0  0
  6  7  1  0  0  0
  6  9  1  0  0  0
  8  2  1  0  0  0
  9 30  1  0  0  0
 10 11  1  0  0  0
 11 28  1  0  0  0
 12 28  1  0  0  0
 12 13  1  0  0  0
 13 32  1  0  0  0
 14 15  1  0  0  0
 15 31  1  0  0  0
 17 18  1  0  0  0
 19 20  1  0  0  0
 20 31  1  0  0  0
 21 22  1  0  0  0
 23 24  1  0  0  0
 30 10  1  0  0  0
 31 16  1  0  0  0
  2  3  2  0  0  0
  5  6  2  0  0  0
  7  8  2  0  0  0
  9 27  2  0  0  0
 11 21  2  0  0  0
 13 14  2  0  0  0
 15 29  2  0  0  0
 16 17  2  0  0  0
 18 19  2  0  0  0
 20 32  2  0  0  0
 22 23  2  0  0  0
 24 10  2  0  0  0
M  END
> <rmsd>
0.699296832

$$$$
